[General]
network = Lin
sim-time-limit = 600s
